Version 4.1
SHEET 1 880 680
WIRE -1072 -64 -1200 -64
WIRE -944 -64 -1072 -64
WIRE -1440 -32 -1472 -32
WIRE -1312 -32 -1360 -32
WIRE -944 16 -944 -64
WIRE -944 16 -992 16
WIRE -896 16 -944 16
WIRE -1472 48 -1472 -32
WIRE -1312 48 -1312 -32
WIRE -1200 48 -1200 -64
WIRE -832 64 -832 16
WIRE -736 64 -832 64
WIRE -736 144 -736 64
WIRE -608 144 -736 144
WIRE 32 144 -48 144
WIRE 96 144 32 144
WIRE 304 144 256 144
WIRE 432 144 304 144
WIRE 512 144 432 144
WIRE -1056 192 -1056 16
WIRE -944 192 -992 192
WIRE -896 192 -944 192
WIRE -832 192 -832 64
WIRE 32 192 32 144
WIRE 304 192 304 144
WIRE 432 192 432 144
WIRE -1472 208 -1472 128
WIRE -1392 208 -1472 208
WIRE -1312 208 -1312 128
WIRE -1312 208 -1392 208
WIRE -736 208 -736 144
WIRE 176 256 176 208
WIRE -1200 272 -1200 128
WIRE -944 272 -944 192
WIRE -944 272 -1200 272
WIRE 32 288 32 256
WIRE 304 288 304 256
WIRE 432 288 432 272
WIRE -1056 320 -1056 192
WIRE -736 320 -736 272
WIRE -736 320 -1056 320
WIRE -608 320 -736 320
WIRE -736 336 -736 320
FLAG 176 256 0
FLAG 32 288 0
FLAG 304 288 0
FLAG -48 144 Vrect_filter
IOPIN -48 144 In
FLAG 512 144 Vout
IOPIN 512 144 Out
FLAG 432 288 0
FLAG -736 336 0
FLAG -1072 -64 secondary
FLAG -1392 208 0
FLAG -1472 -32 Vin
IOPIN -1472 -32 In
FLAG -1312 -32 VT1
IOPIN -1312 -32 Out
FLAG -1312 208 VT2
IOPIN -1312 208 Out
FLAG -736 64 Vrect_filter
IOPIN -736 64 Out
DATAFLAG 48 144 ""
SYMBOL ZZZ\\VolReg\\LM2940 176 160 R0
SYMATTR InstName U1
SYMBOL cap 16 192 R0
SYMATTR InstName C1
SYMATTR Value 0.47µ
SYMBOL cap 288 192 R0
SYMATTR Value 22µ
SYMATTR InstName C2
SYMATTR SpiceLine V=16 Irms=0 Rser=11 Lser=0 mfg="AVX" pn="TAJA105K016" type="Tantalum"
SYMBOL res 416 176 R0
SYMATTR InstName R1
SYMATTR Value 1k
SYMBOL ind2 -1296 144 R180
WINDOW 0 36 80 Left 2
WINDOW 3 36 40 Left 2
SYMATTR InstName L1
SYMATTR Value 130
SYMATTR Type ind
SYMBOL ind2 -1216 32 R0
SYMATTR InstName L2
SYMATTR Type ind
SYMATTR Value 1
SYMBOL voltage -1472 32 R0
WINDOW 123 0 0 Left 0
WINDOW 39 0 0 Left 0
WINDOW 3 -177 99 Left 2
SYMATTR Value SINE(0 120 60)
SYMATTR InstName V1
SYMBOL diode -1056 208 R270
WINDOW 0 32 32 VTop 2
WINDOW 3 0 32 VBottom 2
SYMATTR InstName D1
SYMATTR Value 1N4148
SYMBOL diode -1056 32 R270
WINDOW 0 32 32 VTop 2
WINDOW 3 0 32 VBottom 2
SYMATTR InstName D2
SYMATTR Value 1N4148
SYMBOL diode -896 208 R270
WINDOW 0 32 32 VTop 2
WINDOW 3 0 32 VBottom 2
SYMATTR InstName D3
SYMATTR Value 1N4148
SYMBOL diode -896 32 R270
WINDOW 0 32 32 VTop 2
WINDOW 3 0 32 VBottom 2
SYMATTR InstName D4
SYMATTR Value 1N4148
SYMBOL res -1344 -48 R90
WINDOW 0 0 56 VBottom 2
WINDOW 3 32 56 VTop 2
SYMATTR InstName R2
SYMATTR Value 100
SYMBOL cap -752 208 R0
WINDOW 0 44 6 Left 2
SYMATTR InstName C3
SYMATTR Value 1000µ
TEXT -1312 0 Left 2 !K1 L1 L2 1
TEXT -1504 376 Left 2 !.tran 0 300m 0 1m
