Version 4.1
SHEET 1 880 680
WIRE 80 128 -32 128
WIRE 512 128 304 128
WIRE 368 160 304 160
WIRE 416 160 368 160
WIRE 512 160 512 128
WIRE 512 160 496 160
WIRE 592 160 512 160
WIRE -32 176 -32 128
WIRE 368 192 368 160
WIRE 592 192 592 160
WIRE 112 256 112 224
WIRE 224 256 224 224
WIRE -32 272 -32 240
WIRE 368 272 368 256
WIRE 592 272 592 256
FLAG 112 256 0
FLAG 224 256 0
FLAG -32 272 0
FLAG 592 272 0
FLAG 368 272 0
SYMBOL ZZZ\\Sw_Reg_add\\LM2576HV_TRANS 192 144 R0
SYMATTR InstName U1
SYMBOL ind 400 176 R270
WINDOW 0 32 56 VTop 2
WINDOW 3 5 56 VBottom 2
SYMATTR InstName L1
SYMBOL cap -48 176 R0
WINDOW 3 24 56 Left 2
SYMATTR InstName C1
SYMATTR Value 100µ
SYMATTR Description Capacitor
SYMATTR Type cap
SYMATTR SpiceLine V=16 Irms=0 Rser=11 Lser=0
SYMBOL cap 576 192 R0
WINDOW 3 24 56 Left 2
SYMATTR InstName C2
SYMATTR Value 1µ
SYMATTR Description Capacitor
SYMATTR Type cap
SYMATTR SpiceLine V=16 Irms=0 Rser=11 Lser=0 mfg="AVX" pn="TAJA105K016" type="Tantalum"
SYMBOL zener 384 256 R180
WINDOW 0 24 64 Left 2
WINDOW 3 24 0 Left 2
SYMATTR InstName D1
SYMATTR Value EDZV36B
